Version 4
SHEET 1 2228 1480
WIRE -192 -304 -256 -304
WIRE -96 -304 -192 -304
WIRE 320 -304 -96 -304
WIRE 608 -304 416 -304
WIRE 752 -304 608 -304
WIRE -96 -272 -96 -304
WIRE 368 -208 368 -240
WIRE 496 -208 368 -208
WIRE -96 -160 -96 -192
WIRE 80 -160 -96 -160
WIRE 608 -160 608 -304
WIRE 608 -160 160 -160
WIRE -256 -144 -256 -304
WIRE 368 -128 368 -208
WIRE 496 -96 496 -208
WIRE 608 -96 608 -160
WIRE -96 -80 -96 -160
WIRE -16 -80 -96 -80
WIRE 208 -80 64 -80
WIRE 304 -80 208 -80
WIRE -96 -48 -96 -80
WIRE 208 -32 208 -80
WIRE 608 16 608 -32
WIRE 608 16 272 16
WIRE -256 96 -256 -80
WIRE -96 96 -96 16
WIRE -96 96 -256 96
WIRE 208 96 208 64
WIRE 208 96 -96 96
WIRE 368 96 368 -32
WIRE 368 96 208 96
WIRE 496 96 496 -32
WIRE 496 96 368 96
WIRE 752 96 496 96
WIRE -256 144 -256 96
WIRE -192 352 -256 352
WIRE -96 352 -192 352
WIRE 320 352 -96 352
WIRE 608 352 416 352
WIRE 752 352 608 352
WIRE -96 384 -96 352
WIRE 368 448 368 416
WIRE 496 448 368 448
WIRE -96 496 -96 464
WIRE 80 496 -96 496
WIRE 608 496 608 352
WIRE 608 496 160 496
WIRE -256 512 -256 352
WIRE 368 528 368 448
WIRE 496 560 496 448
WIRE 608 560 608 496
WIRE -96 576 -96 496
WIRE -16 576 -96 576
WIRE 208 576 64 576
WIRE 304 576 208 576
WIRE -96 608 -96 576
WIRE 208 624 208 576
WIRE 608 672 608 624
WIRE 608 672 272 672
WIRE -256 752 -256 576
WIRE -96 752 -96 672
WIRE -96 752 -256 752
WIRE 208 752 208 720
WIRE 208 752 -96 752
WIRE 368 752 368 624
WIRE 368 752 208 752
WIRE 496 752 496 624
WIRE 496 752 368 752
WIRE 752 752 496 752
WIRE -256 800 -256 752
FLAG 752 -304 +Vout
IOPIN 752 -304 Out
FLAG 752 96 -Vout
IOPIN 752 96 Out
FLAG -256 144 0
FLAG -192 -304 +V
FLAG 752 352 +Vout2
IOPIN 752 352 Out
FLAG 752 752 -Vout2
IOPIN 752 752 Out
FLAG -256 800 0
FLAG -192 352 +V2
SYMBOL res 176 -176 R90
WINDOW 0 -28 58 VBottom 2
WINDOW 3 -35 65 VTop 2
SYMATTR InstName R1
SYMATTR Value 10K
SYMATTR SpiceLine tol=1 pwr=0.1
SYMBOL res 80 -96 R90
WINDOW 0 -31 54 VBottom 2
WINDOW 3 -36 61 VTop 2
SYMATTR InstName R2
SYMATTR Value 100K
SYMATTR SpiceLine tol=1 pwr=0.1
SYMBOL npn 272 -32 M0
WINDOW 0 87 24 Left 2
WINDOW 3 88 52 Left 2
SYMATTR InstName Q1
SYMATTR Value 2N3904
SYMBOL npn 304 -128 R0
WINDOW 0 74 30 Left 2
WINDOW 3 73 64 Left 2
SYMATTR InstName Q2
SYMATTR Value 2N3904
SYMBOL pnp 416 -240 M270
WINDOW 0 39 -22 VLeft 2
WINDOW 3 12 -22 VLeft 2
SYMATTR InstName Q3
SYMATTR Value 2N3906
SYMBOL cap -272 -144 R0
WINDOW 0 53 18 Left 2
WINDOW 3 53 49 Left 2
SYMATTR InstName C3
SYMATTR Value 1
SYMATTR Description Polarized Capacitor
SYMATTR Type polcap
SYMATTR SpiceLine V=6.3 Irms=0 Rser=0 Lser=0
SYMBOL voltage -96 -288 R0
WINDOW 0 17 -152 Left 2
WINDOW 3 15 -123 Left 2
WINDOW 123 0 0 Left 0
WINDOW 39 0 0 Left 0
SYMATTR InstName V1
SYMATTR Value PULSE(5.5V 0V 100s 3600s 3600s 39600s 86400s)
SYMBOL LED 592 -96 R0
WINDOW 0 81 16 Left 2
WINDOW 3 80 48 Left 2
SYMATTR InstName D3
SYMATTR Value QTLP690C
SYMBOL cap 480 -96 R0
SYMATTR InstName C1
SYMATTR Value 0.1µ
SYMATTR SpiceLine V=4 Irms=0 Rser=0 Lser=0
SYMBOL diode -80 16 R180
WINDOW 0 24 64 Left 2
WINDOW 3 24 0 Left 2
SYMATTR InstName D1
SYMBOL res 176 480 R90
WINDOW 0 -28 58 VBottom 2
WINDOW 3 -35 65 VTop 2
SYMATTR InstName R3
SYMATTR Value 10K
SYMATTR SpiceLine tol=1 pwr=0.1
SYMBOL res 80 560 R90
WINDOW 0 -31 54 VBottom 2
WINDOW 3 -36 61 VTop 2
SYMATTR InstName R4
SYMATTR Value 100K
SYMATTR SpiceLine tol=1 pwr=0.1
SYMBOL npn 272 624 M0
WINDOW 0 87 24 Left 2
WINDOW 3 88 52 Left 2
SYMATTR InstName Q4
SYMATTR Value 2N3904
SYMBOL npn 304 528 R0
WINDOW 0 74 30 Left 2
WINDOW 3 73 64 Left 2
SYMATTR InstName Q5
SYMATTR Value 2N3904
SYMBOL pnp 416 416 M270
WINDOW 0 39 -22 VLeft 2
WINDOW 3 12 -22 VLeft 2
SYMATTR InstName Q6
SYMATTR Value 2N3906
SYMBOL cap -272 512 R0
WINDOW 0 53 18 Left 2
WINDOW 3 53 49 Left 2
SYMATTR InstName C2
SYMATTR Value 1
SYMATTR Description Polarized Capacitor
SYMATTR Type polcap
SYMATTR SpiceLine V=6.3 Irms=0 Rser=0 Lser=0
SYMBOL voltage -96 368 R0
WINDOW 0 17 -152 Left 2
WINDOW 3 15 -123 Left 2
WINDOW 123 0 0 Left 0
WINDOW 39 0 0 Left 0
SYMATTR InstName V2
SYMATTR Value PULSE(5.5V 0V 100s 3600s 3600s 39600s 86400s)
SYMBOL LED 592 560 R0
WINDOW 0 81 16 Left 2
WINDOW 3 80 48 Left 2
SYMATTR InstName D2
SYMATTR Value QTLP690C
SYMBOL cap 480 560 R0
SYMATTR InstName C4
SYMATTR Value 0.1µ
SYMATTR SpiceLine V=4 Irms=0 Rser=0 Lser=0
SYMBOL diode -80 672 R180
WINDOW 0 24 64 Left 2
WINDOW 3 24 0 Left 2
SYMATTR InstName D4
SYMATTR Value 1N914
TEXT -88 -384 Left 2 !.tran 0 604800s 0s 60s
TEXT -88 272 Left 2 !;tran 0 604800s 0s 60s
